  Page 1                                    Tue Aug 19 18:44:29 2025

  ******************************************************************
  *                           E P A N E T                          *
  *                   Hydraulic and Water Quality                  *
  *                   Analysis for Pipe Networks                   *
  *                         Version 2.2                            *
  ******************************************************************
  
  Analysis begun Tue Aug 19 18:44:29 2025

  Analysis ended Tue Aug 19 18:44:29 2025
