  Page 1                                    Thu Sep 18 12:37:01 2025

  ******************************************************************
  *                           E P A N E T                          *
  *                   Hydraulic and Water Quality                  *
  *                   Analysis for Pipe Networks                   *
  *                         Version 2.2                            *
  ******************************************************************
  
  Analysis begun Thu Sep 18 12:37:01 2025

  Analysis ended Thu Sep 18 12:37:01 2025
