  Page 1                                    Tue Jul 29 15:31:39 2025

  ******************************************************************
  *                           E P A N E T                          *
  *                   Hydraulic and Water Quality                  *
  *                   Analysis for Pipe Networks                   *
  *                         Version 2.2                            *
  ******************************************************************
  
  Analysis begun Tue Jul 29 15:31:39 2025

  Analysis ended Tue Jul 29 15:31:39 2025
