  Page 1                                    Sat Aug 16 17:39:07 2025

  ******************************************************************
  *                           E P A N E T                          *
  *                   Hydraulic and Water Quality                  *
  *                   Analysis for Pipe Networks                   *
  *                         Version 2.2                            *
  ******************************************************************
  
  Analysis begun Sat Aug 16 17:39:07 2025

  Analysis ended Sat Aug 16 17:39:07 2025
